** Semiconductor package FEM benchmark — SI units (m, N, Pa, W, K)
** Portfolio benchmark only; material values are representative educational assumptions.
*NODE
1, 0, 0, 0
2, 0.0025, 0, 0
3, 0.005, 0, 0
4, 0.0075, 0, 0
5, 0.01, 0, 0
6, 0, 0.0025, 0
7, 0.0025, 0.0025, 0
8, 0.005, 0.0025, 0
9, 0.0075, 0.0025, 0
10, 0.01, 0.0025, 0
11, 0, 0.005, 0
12, 0.0025, 0.005, 0
13, 0.005, 0.005, 0
14, 0.0075, 0.005, 0
15, 0.01, 0.005, 0
16, 0, 0.0075, 0
17, 0.0025, 0.0075, 0
18, 0.005, 0.0075, 0
19, 0.0075, 0.0075, 0
20, 0.01, 0.0075, 0
** ... 155 like lines cut
*ELEMENT, TYPE=C3D8, ELSET=ALL_ELEMENTS
1, 1, 2, 7, 6, 26, 27, 32, 31
2, 2, 3, 8, 7, 27, 28, 33, 32
3, 3, 4, 9, 8, 28, 29, 34, 33
4, 4, 5, 10, 9, 29, 30, 35, 34
5, 6, 7, 12, 11, 31, 32, 37, 36
6, 7, 8, 13, 12, 32, 33, 38, 37
7, 8, 9, 14, 13, 33, 34, 39, 38
8, 9, 10, 15, 14, 34, 35, 40, 39
9, 11, 12, 17, 16, 36, 37, 42, 41
10, 12, 13, 18, 17, 37, 38, 43, 42
11, 13, 14, 19, 18, 38, 39, 44, 43
12, 14, 15, 20, 19, 39, 40, 45, 44
13, 16, 17, 22, 21, 41, 42, 47, 46
14, 17, 18, 23, 22, 42, 43, 48, 47
15, 18, 19, 24, 23, 43, 44, 49, 48
16, 19, 20, 25, 24, 44, 45, 50, 49
17, 26, 27, 32, 31, 51, 52, 57, 56
18, 27, 28, 33, 32, 52, 53, 58, 57
19, 28, 29, 34, 33, 53, 54, 59, 58
20, 29, 30, 35, 34, 54, 55, 60, 59
** ... 76 like lines cut
*ELSET, ELSET=SOLDER_ZONE
1, 2, 3, 4, 5, 6, 7, 8, 9, 10, 11, 12
13, 14, 15, 16
*ELSET, ELSET=SUBSTRATE
17, 18, 19, 20, 21, 22, 23, 24, 25, 26, 27, 28
29, 30, 31, 32, 33, 34, 35, 36, 37, 38, 39, 40
41, 42, 43, 44, 45, 46, 47, 48
*ELSET, ELSET=DIE
49, 50, 51, 52, 53, 54, 55, 56, 57, 58, 59, 60
61, 62, 63, 64
*ELSET, ELSET=MOLD
65, 66, 67, 68, 69, 70, 71, 72, 73, 74, 75, 76
77, 78, 79, 80, 81, 82, 83, 84, 85, 86, 87, 88
89, 90, 91, 92, 93, 94, 95, 96
** Material provenance: Representative open engineering handbook value — Educational FR-4 approximation; not a vendor datasheet or IPC requirement.
*MATERIAL, NAME=FR4
*ELASTIC
2.2e+10, 0.28
*EXPANSION
1.6e-05
*CONDUCTIVITY
0.3
** Material provenance: Representative open engineering handbook value — Educational silicon approximation for portfolio benchmark only.
*MATERIAL, NAME=SILICON
*ELASTIC
1.3e+11, 0.28
*EXPANSION
2.6e-06
*CONDUCTIVITY
130
** Material provenance: Representative open engineering handbook value — Educational mold-compound approximation; not proprietary package data.
*MATERIAL, NAME=MOLD
*ELASTIC
1.8e+10, 0.35
*EXPANSION
1.2e-05
*CONDUCTIVITY
0.7
** Material provenance: Representative open engineering handbook value — Lumped interconnect/support layer for benchmark simplification.
*MATERIAL, NAME=SOLDER
*ELASTIC
3.5e+10, 0.36
*EXPANSION
2.2e-05
*CONDUCTIVITY
50
*SOLID SECTION, ELSET=SOLDER_ZONE, MATERIAL=SOLDER

*SOLID SECTION, ELSET=SUBSTRATE, MATERIAL=FR4

*SOLID SECTION, ELSET=DIE, MATERIAL=SILICON

*SOLID SECTION, ELSET=MOLD, MATERIAL=MOLD

*NSET, NSET=ALLNODES
1, 2, 3, 4, 5, 6, 7, 8, 9, 10, 11, 12
13, 14, 15, 16, 17, 18, 19, 20, 21, 22, 23, 24
25, 26, 27, 28, 29, 30, 31, 32, 33, 34, 35, 36
37, 38, 39, 40, 41, 42, 43, 44, 45, 46, 47, 48
49, 50, 51, 52, 53, 54, 55, 56, 57, 58, 59, 60
61, 62, 63, 64, 65, 66, 67, 68, 69, 70, 71, 72
73, 74, 75, 76, 77, 78, 79, 80, 81, 82, 83, 84
85, 86, 87, 88, 89, 90, 91, 92, 93, 94, 95, 96
97, 98, 99, 100, 101, 102, 103, 104, 105, 106, 107, 108
109, 110, 111, 112, 113, 114, 115, 116, 117, 118, 119, 120
121, 122, 123, 124, 125, 126, 127, 128, 129, 130, 131, 132
133, 134, 135, 136, 137, 138, 139, 140, 141, 142, 143, 144
145, 146, 147, 148, 149, 150, 151, 152, 153, 154, 155, 156
157, 158, 159, 160, 161, 162, 163, 164, 165, 166, 167, 168
169, 170, 171, 172, 173, 174, 175
*NSET, NSET=BOTTOM
1, 2, 3, 4, 5, 6, 7, 8, 9, 10, 11, 12
13, 14, 15, 16, 17, 18, 19, 20, 21, 22, 23, 24
25
*NSET, NSET=TOP
151, 152, 153, 154, 155, 156, 157, 158, 159, 160, 161, 162
163, 164, 165, 166, 167, 168, 169, 170, 171, 172, 173, 174
175
*INITIAL CONDITIONS, TYPE=TEMPERATURE
ALLNODES, 25.000
*STEP
*STATIC
** Thermo-mechanical temperatures use the same power-based 1D thermal-resistance profile as the analytical summary.
*TEMPERATURE
1, 25.000000
2, 25.000000
3, 25.000000
4, 25.000000
5, 25.000000
6, 25.000000
7, 25.000000
8, 25.000000
9, 25.000000
10, 25.000000
11, 25.000000
12, 25.000000
13, 25.000000
14, 25.000000
15, 25.000000
16, 25.000000
17, 25.000000
18, 25.000000
19, 25.000000
20, 25.000000
** ... 155 like lines cut
*BOUNDARY
BOTTOM, 1, 3, 0.0
*CLOAD
*NODE FILE
U
*EL FILE
S
*NODE PRINT, NSET=TOP
U
*EL PRINT, ELSET=ALL_ELEMENTS
S
*END STEP
